A_2__H_4
  polyimide_make_unit

 30 34  0  0  0  0  0  0  0  0999 V2000
   -0.7145    0.4125    0.0000 C   0  0  0  0  0  0  0  0  0  0  0  0
   -0.7145   -0.4125    0.0000 C   0  0  0  0  0  0  0  0  0  0  0  0
    0.0000   -0.8250    0.0000 C   0  0  0  0  0  0  0  0  0  0  0  0
    0.7145   -0.4125    0.0000 C   0  0  0  0  0  0  0  0  0  0  0  0
    0.7145    0.4125    0.0000 C   0  0  0  0  0  0  0  0  0  0  0  0
    0.0000    0.8250    0.0000 C   0  0  0  0  0  0  0  0  0  0  0  0
   -1.4991    0.6674    0.0000 C   0  0  0  0  0  0  0  0  0  0  0  0
   -1.4991   -0.6674    0.0000 C   0  0  0  0  0  0  0  0  0  0  0  0
    1.4991   -0.6674    0.0000 C   0  0  0  0  0  0  0  0  0  0  0  0
    1.4991    0.6674    0.0000 C   0  0  0  0  0  0  0  0  0  0  0  0
   -1.7540    1.4521    0.0000 O   0  0  0  0  0  0  0  0  0  0  0  0
   -1.7540   -1.4521    0.0000 O   0  0  0  0  0  0  0  0  0  0  0  0
    1.7540    1.4521    0.0000 O   0  0  0  0  0  0  0  0  0  0  0  0
    1.7540   -1.4521    0.0000 O   0  0  0  0  0  0  0  0  0  0  0  0
   -6.9340   -0.0000    0.0000 C   0  0  0  0  0  0  0  0  0  0  0  0
   -6.5215   -0.7145    0.0000 C   0  0  0  0  0  0  0  0  0  0  0  0
   -5.6965   -0.7145    0.0000 C   0  0  0  0  0  0  0  0  0  0  0  0
   -5.2840   -0.0000    0.0000 C   0  0  0  0  0  0  0  0  0  0  0  0
   -5.6965    0.7145    0.0000 C   0  0  0  0  0  0  0  0  0  0  0  0
   -6.5215    0.7145    0.0000 C   0  0  0  0  0  0  0  0  0  0  0  0
   -4.4590   -0.0000    0.0000 C   0  0  0  0  0  0  0  0  0  0  0  0
   -4.0465   -0.7145    0.0000 C   0  0  0  0  0  0  0  0  0  0  0  0
   -3.2215   -0.7145    0.0000 C   0  0  0  0  0  0  0  0  0  0  0  0
   -2.8090    0.0000    0.0000 C   0  0  0  0  0  0  0  0  0  0  0  0
   -3.2215    0.7145    0.0000 C   0  0  0  0  0  0  0  0  0  0  0  0
   -4.0465    0.7145    0.0000 C   0  0  0  0  0  0  0  0  0  0  0  0
   -1.9840    0.0000    0.0000 N   0  0  0  0  0  0  0  0  0  0  0  0
    1.9840   -0.0000    0.0000 N   0  0  0  0  0  0  0  0  0  0  0  0
    2.9940   -0.0000    0.0000 H   0  0  0  0  0  0  0  0  0  0  0  0
   -8.0240   -0.0000    0.0000 H   0  0  0  0  0  0  0  0  0  0  0  0
  1  2  1  0        0
  2  3  1  0        0
  3  4  1  0        0
  4  5  1  0        0
  5  6  1  0        0
  6  1  1  0        0
  1  7  1  0        0
  8  2  1  0        0
  4  9  1  0        0
 10  5  1  0        0
  7 11  2  0        0
  8 12  2  0        0
 10 13  2  0        0
  9 14  2  0        0
 15 16  2  0        0
 16 17  1  0        0
 17 18  2  0        0
 18 19  1  0        0
 19 20  2  0        0
 20 15  1  0        0
 18 21  1  0        0
 21 22  2  0        0
 22 23  1  0        0
 23 24  2  0        0
 24 25  1  0        0
 25 26  2  0        0
 26 21  1  0        0
 24 27  1  0        0
 27  7  1  0        0
 27  8  1  0        0
 28  9  1  0        0
 28 10  1  0        0
 28 29  1  0        0
 15 30  1  0        0
M  END
